LTspice 24.0.9 for Windows
Circuit: * C:\Users\ebert\Documents\DODGECLOCK_MK5\_Electrical\BLE_REMOTE\SPICE_TESTING\POWER.asc
Start Time: Fri Mar  1 10:46:22 2024
solver = Alternate
Maximum thread count: 8
tnom = 27
temp = 27
method = trap
WARNING: Node N005 is floating.
WARNING: Node NC_02 is floating.

WARNING: Less than two connections to node n007.  This node is used by r1.
WARNING: Less than two connections to node nc_01.  This node is used by v4.
WARNING: Less than two connections to node nc_02.  This node is used by v4.
Direct Newton iteration for .op point succeeded.
Total elapsed time: 0.409 seconds.

