LTspice 24.0.9 for Windows
Circuit: * C:\Users\ebert\Documents\DODGECLOCK_MK5\_Electrical\BLE_REMOTE\SPICE_TESTING\POWER.asc
Start Time: Wed Feb 28 20:47:07 2024
solver = Alternate
Maximum thread count: 8
tnom = 27
temp = 27
method = trap
Direct Newton iteration for .op point succeeded.
Total elapsed time: 0.078 seconds.

